LTspice 24.0.12 for Windows
Circuit: * C:\Users\tony\Documents\SaeSon\Simulation\Conditionner.asc
Start Time: Fri Jun 14 22:22:02 2024
solver = Normal
Maximum thread count: 16
tnom = 27
temp = 27
method = modified trap
Direct Newton iteration for .op point succeeded.
Total elapsed time: 12.526 seconds.

